*Heading  
** ----------------------------------------------------------------  
**   
**   
*Node
      1,           0.,           0.
      2, 0.0250000004,           0.
      3, 0.0500000007,           0.
      4,  0.075000003,           0.
      5,  0.100000001,           0.
      6,        0.125,           0.
      7,  0.150000006,           0.
      8,  0.174999997,           0.
      9,  0.200000003,           0.
     10,  0.224999994,           0.
     11,         0.25,           0.
     12,  0.275000006,           0.
     13,  0.300000012,           0.
     14,  0.324999988,           0.
     15,  0.349999994,           0.
     16,        0.375,           0.
     17,  0.400000006,           0.
     18,  0.425000012,           0.
     19,  0.449999988,           0.
     20,  0.474999994,           0.
** ... 4941 like lines cut
*Node  
9991, 0.0, 0.0  
9992, .00001, 0.0  
9993, .00001, .00001  
9994, 0.0, .00001  
** ----------------------------------------------------------------	  
*User Element,Type=U1,Nodes=8,Coordinates=2,Properties=6,Variables=32,Unsymm  
1,2,11  
*Element, type=U1  
1,    1,    2,   43,   42, 1682, 1683, 1684, 1685 
2,    2,    3,   44,   43, 1686, 1687, 1688, 1683 
3,    3,    4,   45,   44, 1689, 1690, 1691, 1687 
4,    4,    5,   46,   45, 1692, 1693, 1694, 1690 
5,    5,    6,   47,   46, 1695, 1696, 1697, 1693 
6,    6,    7,   48,   47, 1698, 1699, 1700, 1696 
7,    7,    8,   49,   48, 1701, 1702, 1703, 1699 
8,    8,    9,   50,   49, 1704, 1705, 1706, 1702 
9,    9,   10,   51,   50, 1707, 1708, 1709, 1705 
10,   10,   11,   52,   51, 1710, 1711, 1712, 1708 
11,   11,   12,   53,   52, 1713, 1714, 1715, 1711 
12,   12,   13,   54,   53, 1716, 1717, 1718, 1714 
13,   13,   14,   55,   54, 1719, 1720, 1721, 1717 
14,   14,   15,   56,   55, 1722, 1723, 1724, 1720 
15,   15,   16,   57,   56, 1725, 1726, 1727, 1723 
16,   16,   17,   58,   57, 1728, 1729, 1730, 1726 
17,   17,   18,   59,   58, 1731, 1732, 1733, 1729 
18,   18,   19,   60,   59, 1734, 1735, 1736, 1732 
19,   19,   20,   61,   60, 1737, 1738, 1739, 1735 
20,   20,   21,   62,   61, 1740, 1741, 1742, 1738 
** ... 1580 like lines cut
*Element, type=CPS8R  
10001,    1,    2,   43,   42, 1682, 1683, 1684, 1685 
10002,    2,    3,   44,   43, 1686, 1687, 1688, 1683 
10003,    3,    4,   45,   44, 1689, 1690, 1691, 1687 
10004,    4,    5,   46,   45, 1692, 1693, 1694, 1690 
10005,    5,    6,   47,   46, 1695, 1696, 1697, 1693 
10006,    6,    7,   48,   47, 1698, 1699, 1700, 1696 
10007,    7,    8,   49,   48, 1701, 1702, 1703, 1699 
10008,    8,    9,   50,   49, 1704, 1705, 1706, 1702 
10009,    9,   10,   51,   50, 1707, 1708, 1709, 1705 
10010,   10,   11,   52,   51, 1710, 1711, 1712, 1708 
10011,   11,   12,   53,   52, 1713, 1714, 1715, 1711 
10012,   12,   13,   54,   53, 1716, 1717, 1718, 1714 
10013,   13,   14,   55,   54, 1719, 1720, 1721, 1717 
10014,   14,   15,   56,   55, 1722, 1723, 1724, 1720 
10015,   15,   16,   57,   56, 1725, 1726, 1727, 1723 
10016,   16,   17,   58,   57, 1728, 1729, 1730, 1726 
10017,   17,   18,   59,   58, 1731, 1732, 1733, 1729 
10018,   18,   19,   60,   59, 1734, 1735, 1736, 1732 
10019,   19,   20,   61,   60, 1737, 1738, 1739, 1735 
10020,   20,   21,   62,   61, 1740, 1741, 1742, 1738 
** ... 1580 like lines cut
*Element, type=CPE4T  
9999, 9991, 9992, 9993, 9994  
** ----------------------------------------------------------------    
*Nset, nset=all, generate 
1,  4961,     1 
*Elset, elset=all, generate 
1,  1600,     1 
*Nset, nset=botleftpt 
1, 
*Nset, nset=botrightpt 
41, 
*Nset, nset=bottom 
1,    2,    3,    4,    5,    6,    7,    8,    9,   10,   11,   12,   13,   14,   15,   16 
17,   18,   19,   20,   21,   22,   23,   24,   25,   26,   27,   28,   29,   30,   31,   32 
33,   34,   35,   36,   37,   38,   39,   40,   41, 1682, 1686, 1689, 1692, 1695, 1698, 1701 
1704, 1707, 1710, 1713, 1716, 1719, 1722, 1725, 1728, 1731, 1734, 1737, 1740, 1743, 1746, 1749 
1752, 1755, 1758, 1761, 1764, 1767, 1770, 1773, 1776, 1779, 1782, 1785, 1788, 1791, 1794, 1797 
1800, 
*Elset, elset=bottom, generate 
1,  40,   1 
*Nset, nset=left 
1,   42,   83,  124,  165,  206,  247,  288,  329,  370,  411,  452,  493,  534,  575,  616 
657,  698,  739,  780,  821,  862,  903,  944,  985, 1026, 1067, 1108, 1149, 1190, 1231, 1272 
1313, 1354, 1395, 1436, 1477, 1518, 1559, 1600, 1641, 1685, 1805, 1886, 1967, 2048, 2129, 2210 
2291, 2372, 2453, 2534, 2615, 2696, 2777, 2858, 2939, 3020, 3101, 3182, 3263, 3344, 3425, 3506 
3587, 3668, 3749, 3830, 3911, 3992, 4073, 4154, 4235, 4316, 4397, 4478, 4559, 4640, 4721, 4802 
4883, 
*Elset, elset=left, generate 
1,  1561,    40 
*Nset, nset=leftpt 
821, 
*Nset, nset=right 
41,   82,  123,  164,  205,  246,  287,  328,  369,  410,  451,  492,  533,  574,  615,  656 
697,  738,  779,  820,  861,  902,  943,  984, 1025, 1066, 1107, 1148, 1189, 1230, 1271, 1312 
1353, 1394, 1435, 1476, 1517, 1558, 1599, 1640, 1681, 1801, 1882, 1963, 2044, 2125, 2206, 2287 
2368, 2449, 2530, 2611, 2692, 2773, 2854, 2935, 3016, 3097, 3178, 3259, 3340, 3421, 3502, 3583 
3664, 3745, 3826, 3907, 3988, 4069, 4150, 4231, 4312, 4393, 4474, 4555, 4636, 4717, 4798, 4879 
4960, 
*Elset, elset=right, generate 
40,  1600,    40 
*Nset, nset=rightpt 
861, 
*Nset, nset=top 
1641, 1642, 1643, 1644, 1645, 1646, 1647, 1648, 1649, 1650, 1651, 1652, 1653, 1654, 1655, 1656 
1657, 1658, 1659, 1660, 1661, 1662, 1663, 1664, 1665, 1666, 1667, 1668, 1669, 1670, 1671, 1672 
1673, 1674, 1675, 1676, 1677, 1678, 1679, 1680, 1681, 4882, 4885, 4887, 4889, 4891, 4893, 4895 
4897, 4899, 4901, 4903, 4905, 4907, 4909, 4911, 4913, 4915, 4917, 4919, 4921, 4923, 4925, 4927 
4929, 4931, 4933, 4935, 4937, 4939, 4941, 4943, 4945, 4947, 4949, 4951, 4953, 4955, 4957, 4959 
4961, 
*Elset, elset=top, generate 
1561,  1600,     1 
*Nset, nset=topleftpt 
1641, 
*Nset, nset=toprightpt 
1681, 
**  
*Elset, elset=dummyall, generate  
10001,  11600,    1  
*Nset, nset=extraall, generate  
9991,  9994,  1  
*Elset, elset=extraall  
9999  
** ----------------------------------------------------------------  
*uel property,elset=all  
** c0, c1, c2, alpha, beta  
1, 1e-2, 5e-5, -0.9, 0.9  
**   
*Solid Section, elset=dummyall, material=Material-1  
*Material, name=Material-1  
*Elastic  
1e-20,0.  
*User output variables  
4  
**   
*Solid Section, elset=extraall, material=Material-2  
*Material, name=Material-2  
*Elastic  
1e-20,0.  
*Conductivity  
1.0  
*Density  
1.0  
*Specific heat  
1.0   
** ----------------------------------------------------------------  
*Initial Conditions, type=TEMPERATURE  
all, 0.  
*Initial Conditions, type=TEMPERATURE  
extraall, 0.  
** ----------------------------------------------------------------  
**   
** STEP: Step-1  
**   
*Step, name=Step-1, nlgeom=YES  
*Coupled Temperature-displacement, creep=none, steady state  
0.01, 1., 1e-05, 1.  
**   
** BOUNDARY CONDITIONS 
**  
** Name: BC-1 Type: Displacement/Rotation 
*Boundary 
leftpt, 1, 1 
leftpt, 2, 2 
** Name: BC-2 Type: Displacement/Rotation 
*Boundary 
rightpt, 1, 1, 0.36 
**   
** ----------------------------------------------------------------  
**   
*Output, field  
*node output, nset=all  
u  
*Node output, nset=extraall  
u  
*Element output, elset=dummyall  
le,uvarm  
**   
 
*End Step  
